k23/sourcebus_11000.trafo_75604448_75604448/Loads.dss
New Load.75610272_nmi_elem_75610272 bus1=3103368.3 kV=0.23094010767585033 Vminpu=0.7 Vmaxpu=1.3 model=1 kW=0.0 kvar=0.0 Phases=1
New Load.NMI_elem_75605901 bus1=3103368.3 kV=0.23094010767585033 Vminpu=0.7 Vmaxpu=1.3 model=1 kW=0.8357883979778284 kvar=0.1697140726668179 Phases=1
New Load.NMI_elem_75605902 bus1=3102633.3 kV=0.23094010767585033 Vminpu=0.7 Vmaxpu=1.3 model=1 kW=0.8754272250492274 kvar=0.1777630798010391 Phases=1
New Load.NMI_elem_75605903 bus1=3102269.3 kV=0.23094010767585033 Vminpu=0.7 Vmaxpu=1.3 model=1 kW=1.3713339809954828 kvar=0.2784612414628397 Phases=1
New Load.NMI_elem_75607116 bus1=3103086.3 kV=0.23094010767585033 Vminpu=0.7 Vmaxpu=1.3 model=1 kW=4.857018638566756 kvar=0.9862596994217598 Phases=1
New Load.NMI_elem_75608801 bus1=3103163.3 kV=0.23094010767585033 Vminpu=0.7 Vmaxpu=1.3 model=1 kW=2.1704601991183057 kvar=0.44073074099237713 Phases=1
